%%%%%%%%%%%%%%%%%%%%%%%%%%%%%%%%%%%%%%%%%%%%%%%%%%%%%%%%%%%%%%%%%%%%%%%%%%%%%%%%
%                                                                              %
% SU2 configuration file                                                       %
% Case description: 2D stator-rotor turbine stage HB nonideal MM               %
% Author: H. Gaens                                                             %
% Institution: Delft University of Technology                                  %
% Date: Jan 23nd, 2020                                                         %
% File Version 5.0.0 "raven"                                                   %
%                                                                              %
%%%%%%%%%%%%%%%%%%%%%%%%%%%%%%%%%%%%%%%%%%%%%%%%%%%%%%%%%%%%%%%%%%%%%%%%%%%%%%%%
%
%
% ------------- DIRECT, ADJOINT, AND LINEARIZED PROBLEM DEFINITION ------------%
%
% Physical governing equations (EULER, NAVIER_STOKES,
%                               WAVE_EQUATION, HEAT_EQUATION, LINEAR_ELASTICITY,
%                               POISSON_EQUATION)                         
PHYSICAL_PROBLEM= RANS
%
FROZEN_VISC_DISC= NO
%
% Specify turbulent model (NONE, SA, SST)
KIND_TURB_MODEL= SA
%
% Mathematical problem (DIRECT, ADJOINT, LINEARIZED)
MATH_PROBLEM= DIRECT
%
% Restart solution (NO, YES)
RESTART_SOL= NO
%
NZONES= 10
%
% -------------------- COMPRESSIBLE FREE-STREAM DEFINITION --------------------%
%
% Mach number (non-dimensional, based on the free-stream values)
MACH_NUMBER= 0.05
%
% Angle of attack (degrees, only for compressible flows)
AOA= 0.0
%
% Free-stream pressure (101325.0 N/m^2 by default, only Euler flows) 
%FREESTREAM_PRESSURE= 75720
FREESTREAM_PRESSURE= 4000000
%
% Free-stream temperature (273.15 K by default)
FREESTREAM_TEMPERATURE=  545.6724
%
% Free-stream temperature (1.2886 Kg/m3 by default)
%FREESTREAM_DENSITY= 1.7418
FREESTREAM_DENSITY= 318.21797931583137
%
% Free-stream option to choose if you want to use Density (DENSITY_FS) or Temperature (TEMPERATURE_FS) to initialize the solution
FREESTREAM_OPTION= TEMPERATURE_FS
%
% Free-stream Turbulence Intensity
FREESTREAM_TURBULENCEINTENSITY = 0.03
%
% Free-stream Turbulent to Laminar viscosity ratio
FREESTREAM_TURB2LAMVISCRATIO = 100.0
%
%Init option to choose between Reynolds (default) or thermodynamics quantities for initializing the solution (REYNOLDS, TD_CONDITIONS)
INIT_OPTION= TD_CONDITIONS
%
% ---------------------- REFERENCE VALUE DEFINITION ---------------------------%
%
% Reference origin for moment computation
REF_ORIGIN_MOMENT_X = 0.00
REF_ORIGIN_MOMENT_Y = 0.00
REF_ORIGIN_MOMENT_Z = 0.00
%
% Reference length for pitching, rolling, and yawing non-dimensional moment
REF_LENGTH= 1.0
%
% Reference area for force coefficients (0 implies automatic calculation)
REF_AREA= 1.0
%
%
% Flow non-dimensionalization (DIMENSIONAL, FREESTREAM_PRESS_EQ_ONE,
%                              FREESTREAM_VEL_EQ_MACH, FREESTREAM_VEL_EQ_ONE)
REF_DIMENSIONALIZATION= DIMENSIONAL
%
%
% ------------------------------ EQUATION OF STATE ----------------------------%
%
% Different gas model (STANDARD_AIR, IDEAL_GAS, VW_GAS, PR_GAS)
FLUID_MODEL= VW_GAS
%
% Ratio of specific heats (1.4 default and the value is hardcoded
%                          for the model STANDARD_AIR)
GAMMA_VALUE= 1.025
%
% Specific gas constant (287.058 J/kg*K default and this value is hardcoded 
%                        for the model STANDARD_AIR)
GAS_CONSTANT= 51.21
%
% Critical Temperature (131.00 K by default)
CRITICAL_TEMPERATURE= 518.75
%
% Critical Pressure (3588550.0 N/m^2 by default)
CRITICAL_PRESSURE= 1939000.0
%
% Acentri factor (0.035 (air))
ACENTRIC_FACTOR= 0.418
%
% --------------------------- VISCOSITY MODEL ---------------------------------%
%
% Viscosity model (SUTHERLAND, CONSTANT_VISCOSITY).
VISCOSITY_MODEL= CONSTANT_VISCOSITY
%
MU_CONSTANT= 5.49256791232628E-06
% Sutherland Viscosity Ref (1.716E-5 default value for AIR SI)
MU_REF= 1.716E-5
%
% Sutherland Temperature Ref (273.15 K default value for AIR SI)
MU_T_REF= 273.15
%
% Sutherland constant (110.4 default value for AIR SI)
SUTHERLAND_CONSTANT= 110.4
%
%
% --------------------------- THERMAL CONDUCTIVITY MODEL ----------------------%
%
% Conductivity model (CONSTANT_CONDUCTIVITY, CONSTANT_PRANDTL).
CONDUCTIVITY_MODEL= CONSTANT_PRANDTL
%
% ------------------------- UNSTEADY SIMULATION -------------------------------%
%
% Unsteady simulation (NO, TIME_STEPPING, DUAL_TIME_STEPPING-1ST_ORDER,
%                      DUAL_TIME_STEPPING-2ND_ORDER, TIME_SPECTRAL)
%UNSTEADY_SIMULATION= NO
UNSTEADY_SIMULATION= HARMONIC_BALANCE
%
%
% List of frequencies
TIME_INSTANCES= 5
%OMEGA_HB=[0.00000, 18298.8037006865420439555, -18298.8037006865420439555 ]
OMEGA_HB=[0.00000, 28141.30227156981, 56282.60454313962, -28141.30227156981, -56282.60454313962]
HB_PERIOD = 0.00022327272727272726

%
% -------------------- BOUNDARY CONDITION DEFINITION --------------------------%
%
% Navier-Stokes wall boundary marker(s) (NONE = no marker)
MARKER_HEATFLUX= ( wall1, 0.0, wall2, 0.0)
%
MARKER_ZONE_INTERFACE= (outmix, inmix)
MARKER_FLUID_INTERFACE= (outmix, inmix)
KIND_INTERPOLATION= TURBO_INTERPOLATION
MATCHING_MESH= NO
%
% Periodic boundary marker(s) (NONE = no marker)
% Format: ( periodic marker, donor marker, rot_cen_x, rot_cen_y, rot_cen_z, rot_angle_x-axis, rot_angle_y-axis, rot_angle_z-axis, translation_x, translation_y, translation_z)
MARKER_PERIODIC= ( periodic1, periodic2, 0.0, 0.0, 0.0, 0.0, 0.0, 0.0, 0.0, 0.012280, 0.0, periodic3, periodic4, 0.0, 0.0, 0.0, 0.0, 0.0, 0.0, 0.0,0.012280, 0.0)
%
%
%-------- INFLOW/OUTFLOW BOUNDARY CONDITION SPECIFIC FOR TURBOMACHINERY --------%
%
% Inflow and Outflow markers must be specified, for each blade (zone), following the natural groth of the machine (i.e, from the first blade to the last)
MARKER_TURBOMACHINERY= (inflow, outmix, inmix, outflow)
%
% Mixing-plane interface markers must be specified to activate the transfer of information between zones
%MARKER_MIXINGPLANE_INTERFACE= (outmix, inmix)
%
% Giles boundary condition for inflow, outfolw and mixing-plane
% Format inlet:  ( marker, TOTAL_CONDITIONS_PT, Total Pressure , Total Temperature, Flow dir-norm, Flow dir-tang, Flow dir-span, under-relax-avg, under-relax-fourier)
% Format outlet: ( marker, STATIC_PRESSURE, Static Pressure value, -, -, -, -, under-relax-avg, under-relax-fourier)
% Format mixing-plane in and out: ( marker, MIXING_IN or MIXING_OUT, -, -, -, -, -, -, under-relax-avg, under-relax-fourier)
MARKER_GILES= (inflow, TOTAL_CONDITIONS_PT, 4000000, 545.6724, 1.0, 0.0, 0.0,1.0,0.0, outflow, STATIC_PRESSURE, 1660154.369, 0.0, 0.0, 0.0, 0.0,1.0,0.0)
%
%YES Non reflectivity activated, NO the Giles BC behaves as a normal 1D characteristic-based BC
SPATIAL_FOURIER= YES
%
%
%---------------------------- TURBOMACHINERY SIMULATION -----------------------------%
%
% Specify kind of architecture (AXIAL, CENTRIPETAL, CENTRIFUGAL, CENTRIPETAL_AXIAL)
%TURBOMACHINERY_KIND= AXIAL AXIAL AXIAL AXIAL AXIAL AXIAL
TURBOMACHINERY_KIND=  AXIAL AXIAL AXIAL AXIAL AXIAL AXIAL AXIAL AXIAL AXIAL AXIAL  
%
% Specify option for turbulent mixing-plane (YES, NO) default NO
TURBULENT_MIXINGPLANE= NO
%
% Specify ramp option for Outlet pressure (YES, NO) default NO
RAMP_OUTLET_PRESSURE= NO
%
% Parameters of the outlet pressure ramp (starting outlet pressure, updating-iteration-frequency, total number of iteration for the ramp)
RAMP_OUTLET_PRESSURE_COEFF= (4000000.0, 10.0, 2000)
%
% Specify Kind of average process for linearizing the Navier-Stokes equation at inflow and outflow BC included mixing-plane
% (ALGEBRAIC, AREA, MASSSFLUX, MIXEDOUT) default AREA 
AVERAGE_PROCESS_KIND= MIXEDOUT
%
% Specify Kind of average process for computing turbomachienry performance parameters
% (ALGEBRAIC, AREA, MASSSFLUX, MIXEDOUT) default AREA
PERFORMANCE_AVERAGE_PROCESS_KIND= MIXEDOUT
%
%Parameters of the Newton method for the MIXEDOUT average algorithm (under relaxation factor, tollerance, max number of iterations) 
MIXEDOUT_COEFF= (1.0, 1.0E-05, 15)
%
% Limit of Mach number below which the mixedout algorithm is substituted with a AREA average algorithm
AVERAGE_MACH_LIMIT= 0.05
%
%
% ------------------------ SURFACES IDENTIFICATION ----------------------------%
%
% Marker(s) of the surface in the surface flow solution file
MARKER_PLOTTING= (wall1, wall2)
MARKER_MONITORING= (wall1, wall2)
%
%
% ------------------------- GRID ADAPTATION STRATEGY --------------------------%
%
% Kind of grid adaptation (NONE, PERIODIC)
KIND_ADAPT= PERIODIC
%
%
%
%
% ----------------------- DYNAMIC MESH DEFINITION -----------------------------%
%
% Dynamic mesh simulation (NO, YES)
GRID_MOVEMENT= YES
%
% Type of dynamic mesh (NONE, ROTATING_FRAME)
GRID_MOVEMENT_KIND= RIGID_MOTION RIGID_MOTION
%
% Motion mach number (non-dimensional). Used for intitializing a viscous flow
% with the Reynolds number and for computing force coeffs. with dynamic meshes.
MACH_MOTION= 0.35
%
% Angular velocity vector (rad/s) about the motion origi. Example 1250 RPM -> 130.89969389957471 rad/s
TRANSLATION_RATE_X = 0.0  0.0
TRANSLATION_RATE_Y = 0.0  55
TRANSLATION_RATE_Z = 0.0  0.0
%
PERIODIC_RIGID_MOVEMENT= YES
%
PERIODICITY_TRANSLATION_X = 0. 0.
PERIODICITY_TRANSLATION_Y = 0. 0.012280
PERIODICITY_TRANSLATION_Z = 0. 0.

%
%
% ------------- COMMON PARAMETERS DEFINING THE NUMERICAL METHOD ---------------%
%
% Numerical method for spatial gradients (GREEN_GAUSS, WEIGHTED_LEAST_SQUARES)
NUM_METHOD_GRAD= WEIGHTED_LEAST_SQUARES
%
% Courant-Friedrichs-Lewy condition of the finest grid
CFL_NUMBER= 6.
%
% Adaptive CFL number (NO, YES)
CFL_ADAPT= NO
%
% Parameters of the adaptive CFL number (factor down, factor up, CFL min value, CFL max value )
CFL_ADAPT_PARAM= ( 4.5, 0.1, 1.0, 1000.0)
%
%
%
%
% ------------------------ LINEAR SOLVER DEFINITION ---------------------------%
%
% Linear solver or smoother for implicit formulations (BCGSTAB, FGMRES, SMOOTHER_JACOBI, SMOOTHER_ILU0, SMOOTHER_LUSGS, SMOOTHER_LINELET)
LINEAR_SOLVER= FGMRES
%
% Preconditioner of the Krylov linear solver (ILU0, LU_SGS, LINELET, JACOBI)
LINEAR_SOLVER_PREC= LU_SGS
%
% Min error of the linear solver for the implicit formulation
LINEAR_SOLVER_ERROR= 1E-4
%
% Max number of iterations of the linear solver for the implicit formulation
LINEAR_SOLVER_ITER= 15
%
%
% -------------------------- MULTIGRID PARAMETERS -----------------------------%
%
% ----------- NOT WORKING WITH PERIODIC BOUNDARY CONDITIONS !!!!! --------------%
%
%
% ----------------------- SLOPE LIMITER DEFINITION ----------------------------%
%
% Reference element length for computing the slope and sharp edges 
%                              limiters (0.1 m, 5.0 in by default)
%REF_ELEM_LENGTH= 0.1
%
% Coefficient for the limiter
%LIMITER_COEFF= 0.5
%
% Freeze the value of the limiter after a number of iterations
LIMITER_ITER= 999999
%
%
% -------------------- FLOW NUMERICAL METHOD DEFINITION -----------------------%
%
% Convective numerical method (JST, LAX-FRIEDRICH, CUSP, ROE, AUSM, HLLC,
%                              TURKEL_PREC, MSW)
CONV_NUM_METHOD_FLOW= ROE
%
% Spatial numerical order integration (1ST_ORDER, 2ND_ORDER, 2ND_ORDER_LIMITER)
MUSCL_FLOW= NO
%
% Slope limiter (VENKATAKRISHNAN, VAN_ALBADA)
SLOPE_LIMITER_FLOW= VENKATAKRISHNAN
%
% Entropy fix coefficient (0.0 implies no entropy fixing, 1.0 implies scalar artificial dissipation, 0.001 default)
%ENTROPY_FIX_COEFF= 0.3
%
% 1st, 2nd and 4th order artificial dissipation coefficients
JST_SENSOR_COEFF= ( 0.5, 0.02 )
%
% Time discretization (RUNGE-KUTTA_EXPLICIT, EULER_IMPLICIT, EULER_EXPLICIT)
TIME_DISCRE_FLOW= EULER_IMPLICIT
%
% Relaxation coefficient
RELAXATION_FACTOR_FLOW= 0.9
%
%
% -------------------- TURBULENT NUMERICAL METHOD DEFINITION ------------------%
%
% Convective numerical method (SCALAR_UPWIND)
CONV_NUM_METHOD_TURB= SCALAR_UPWIND
%
% Spatial numerical order integration (1ST_ORDER, 2ND_ORDER, 2ND_ORDER_LIMITER)
%
MUSCL_TURB= NO
%
% Slope limiter (VENKATAKRISHNAN, MINMOD)
SLOPE_LIMITER_TURB= VENKATAKRISHNAN
%
% Time discretization (EULER_IMPLICIT)
TIME_DISCRE_TURB= EULER_IMPLICIT
%
% Reduction factor of the CFL coefficient in the turbulence problem
CFL_REDUCTION_TURB= 0.25
%
% Relaxation coefficient
RELAXATION_FACTOR_TURB= 0.95
%
% ----------------------- DESIGN VARIABLE PARAMETERS --------------------------%
%
% Kind of deformation (NO_DEFORMATION, TRANSLATION, ROTATION, SCALE,
%                      FFD_SETTING, FFD_NACELLE
%                      FFD_CONTROL_POINT, FFD_CAMBER, FFD_THICKNESS, FFD_TWIST
%                      FFD_CONTROL_POINT_2D, FFD_CAMBER_2D, FFD_THICKNESS_2D, FFD_TWIST_2D,
%                      HICKS_HENNE, SURFACE_BUMP)
DV_KIND= FFD_SETTING
% 
% Marker of the surface in which we are going apply the shape deformation
DV_MARKER= (wall1, wall2)
%
% Parameters of the shape deformation
DV_PARAM= ( MAIN_BOX, 2.0, 3.0, 0.0, 0.0)
%
% Value of the shape deformation
DV_VALUE= 0.01
%
%
% ------------------------ GRID DEFORMATION PARAMETERS ------------------------%
DEFORM_LINEAR_ITER= 250
%
%
% -------------------- FREE-FORM DEFORMATION PARAMETERS -----------------------%
%
% Tolerance of the Free-Form Deformation point inversion
FFD_TOLERANCE= 1E-10
%
% Maximum number of iterations in the Free-Form Deformation point inversion
FFD_ITERATIONS= 500
%
% FFD box definition: 3D case (FFD_BoxTag, X1, Y1, Z1, X2, Y2, Z2, X3, Y3, Z3, X4, Y4, Z4,
%                              X5, Y5, Z5, X6, Y6, Z6, X7, Y7, Z7, X8, Y8, Z8)
%                     2D case (FFD_BoxTag, X1, Y1, 0.0, X2, Y2, 0.0, X3, Y3, 0.0, X4, Y4, 0.0,
%                              0.0, 0.0, 0.0, 0.0, 0.0, 0.0, 0.0, 0.0, 0.0, 0.0, 0.0, 0.0)
% WITH TE
%FFD_DEFINITION= (MAIN_BOX1, 0.12994, -0.01247, 0.0, 0.14961, 0.01374, 0.0, 0.19494, -0.02416, 0.0, 0.18591, -0.06290, 0.0, 0.0, 0.0, 0.0, 0.0, 0.0, 0.0, 0.0, 0.0, 0.0, 0.0, 0.0, 0.0);(MAIN_BOX2, 0.2051, -0.0429, 0.0, 0.1984, 0.0026, 0.0, 0.2550, 0.0378, 0.0, 0.2660, 0.0008, 0.0, 0.0, 0.0, 0.0, 0.0, 0.0, 0.0, 0.0, 0.0, 0.0, 0.0, 0.0, 0.0)
% WITHOUT TE
FFD_DEFINITION= (MAIN_BOX1, 0.138232, -0.004446, 0.0, 0.158220, 0.00903992, 0.0, 0.1931399, -0.03406773, 0.0, 0.1819074, -0.0498369, 0.0, 0.0, 0.0, 0.0, 0.0, 0.0, 0.0, 0.0, 0.0, 0.0, 0.0, 0.0, 0.0);(MAIN_BOX2, 0.19843, -0.0063723, 0.0, 0.24997, 0.022526, 0.0, 0.258163, -0.0010747, 0.0, 0.212165, -0.0343086, 0.0, 0.0, 0.0, 0.0, 0.0, 0.0, 0.0, 0.0, 0.0, 0.0, 0.0, 0.0, 0.0)
%
DEFINITION_DV= ( 15, 1.0 | wall1, wall2 | MAIN_BOX1, 0, 0, 1.0, 1.0 ); ( 15, 1.0 | wall1, wall2 | MAIN_BOX1, 1, 0, 1.0, 1.0 ); ( 15, 1.0 | wall1, wall2 | MAIN_BOX1, 2, 0, 1.0, 1.0 ); ( 15, 1.0 | wall1, wall2 | MAIN_BOX1, 3, 0, 1.0, 1.0 ); ( 15, 1.0 | wall1, wall2 | MAIN_BOX1, 4, 0, 1.0, 1.0 ); ( 15, 1.0 | wall1, wall2 | MAIN_BOX1, 5, 0, 1.0, 1.0 ); ( 15, 1.0 | wall1, wall2 | MAIN_BOX1, 0, 1, 1.0, 1.0 ); ( 15, 1.0 | wall1, wall2 | MAIN_BOX1, 1, 1, 1.0, 1.0 ); ( 15, 1.0 | wall1, wall2 | MAIN_BOX1, 2, 1, 1.0, 1.0 ); ( 15, 1.0 | wall1, wall2 | MAIN_BOX1, 3, 1, 1.0, 1.0 ); ( 15, 1.0 | wall1, wall2 | MAIN_BOX1, 4, 1, 1.0, 1.0 ); ( 15, 1.0 | wall1, wall2 | MAIN_BOX1, 5, 1, 1.0, 1.0 ); ( 15, 1.0 | wall1, wall2 | MAIN_BOX1, 0, 2, 1.0, 1.0 ); ( 15, 1.0 | wall1, wall2 | MAIN_BOX1, 1, 2, 1.0, 1.0 ); ( 15, 1.0 | wall1, wall2 | MAIN_BOX1, 2, 2, 1.0, 1.0 ); ( 15, 1.0 | wall1, wall2 | MAIN_BOX1, 3, 2, 1.0, 1.0 ); ( 15, 1.0 | wall1, wall2 | MAIN_BOX1, 4, 2, 1.0, 1.0 ); ( 15, 1.0 | wall1, wall2 | MAIN_BOX1, 5, 2, 1.0, 1.0 ); ( 15, 1.0 | wall1, wall2 | MAIN_BOX1, 0, 3, 1.0, 1.0 ); ( 15, 1.0 | wall1, wall2 | MAIN_BOX1, 1, 3, 1.0, 1.0 ); ( 15, 1.0 | wall1, wall2 | MAIN_BOX1, 2, 3, 1.0, 1.0 ); ( 15, 1.0 | wall1, wall2 | MAIN_BOX1, 3, 3, 1.0, 1.0 ); ( 15, 1.0 | wall1, wall2 | MAIN_BOX1, 4, 3, 1.0, 1.0 ); ( 15, 1.0 | wall1, wall2 | MAIN_BOX1, 5, 3, 1.0, 1.0 ); ( 15, 1.0 | wall1, wall2 | MAIN_BOX1, 0, 4, 1.0, 1.0 ); ( 15, 1.0 | wall1, wall2 | MAIN_BOX1, 1, 4, 1.0, 1.0 ); ( 15, 1.0 | wall1, wall2 | MAIN_BOX1, 2, 4, 1.0, 1.0 ); ( 15, 1.0 | wall1, wall2 | MAIN_BOX1, 3, 4, 1.0, 1.0 ); ( 15, 1.0 | wall1, wall2 | MAIN_BOX1, 4, 4, 1.0, 1.0 ); ( 15, 1.0 | wall1, wall2 | MAIN_BOX1, 5, 4, 1.0, 1.0 ); ( 15, 1.0 | wall1, wall2 | MAIN_BOX1, 0, 5, 1.0, 1.0 ); ( 15, 1.0 | wall1, wall2 | MAIN_BOX2, 0, 0, 1.0, 1.0 ); ( 15, 1.0 | wall1, wall2 | MAIN_BOX2, 1, 0, 1.0, 1.0 ); ( 15, 1.0 | wall1, wall2 | MAIN_BOX2, 2, 0, 1.0, 1.0 ); ( 15, 1.0 | wall1, wall2 | MAIN_BOX2, 3, 0, 1.0, 1.0 ); ( 15, 1.0 | wall1, wall2 | MAIN_BOX2, 4, 0, 1.0, 1.0 ); ( 15, 1.0 | wall1, wall2 | MAIN_BOX2, 5, 0, 1.0, 1.0 ); ( 15, 1.0 | wall1, wall2 | MAIN_BOX2, 0, 1, 1.0, 1.0 ); ( 15, 1.0 | wall1, wall2 | MAIN_BOX2, 1, 1, 1.0, 1.0 ); ( 15, 1.0 | wall1, wall2 | MAIN_BOX2, 2, 1, 1.0, 1.0 ); ( 15, 1.0 | wall1, wall2 | MAIN_BOX2, 3, 1, 1.0, 1.0 ); ( 15, 1.0 | wall1, wall2 | MAIN_BOX2, 4, 1, 1.0, 1.0 ); ( 15, 1.0 | wall1, wall2 | MAIN_BOX2, 5, 1, 1.0, 1.0 ); ( 15, 1.0 | wall1, wall2 | MAIN_BOX2, 0, 2, 1.0, 1.0 ); ( 15, 1.0 | wall1, wall2 | MAIN_BOX2, 1, 2, 1.0, 1.0 ); ( 15, 1.0 | wall1, wall2 | MAIN_BOX2, 2, 2, 1.0, 1.0 ); ( 15, 1.0 | wall1, wall2 | MAIN_BOX2, 3, 2, 1.0, 1.0 ); ( 15, 1.0 | wall1, wall2 | MAIN_BOX2, 4, 2, 1.0, 1.0 ); ( 15, 1.0 | wall1, wall2 | MAIN_BOX2, 5, 2, 1.0, 1.0 ); ( 15, 1.0 | wall1, wall2 | MAIN_BOX2, 0, 3, 1.0, 1.0 ); ( 15, 1.0 | wall1, wall2 | MAIN_BOX2, 1, 3, 1.0, 1.0 ); ( 15, 1.0 | wall1, wall2 | MAIN_BOX2, 2, 3, 1.0, 1.0 ); ( 15, 1.0 | wall1, wall2 | MAIN_BOX2, 3, 3, 1.0, 1.0 ); ( 15, 1.0 | wall1, wall2 | MAIN_BOX2, 4, 3, 1.0, 1.0 ); ( 15, 1.0 | wall1, wall2 | MAIN_BOX2, 5, 3, 1.0, 1.0 ); ( 15, 1.0 | wall1, wall2 | MAIN_BOX2, 0, 4, 1.0, 1.0 ); ( 15, 1.0 | wall1, wall2 | MAIN_BOX2, 1, 4, 1.0, 1.0 ); ( 15, 1.0 | wall1, wall2 | MAIN_BOX2, 2, 4, 1.0, 1.0 ); ( 15, 1.0 | wall1, wall2 | MAIN_BOX2, 3, 4, 1.0, 1.0 ); ( 15, 1.0 | wall1, wall2 | MAIN_BOX2, 4, 4, 1.0, 1.0 ); ( 15, 1.0 | wall1, wall2 | MAIN_BOX2, 5, 4, 1.0, 1.0 ); ( 15, 1.0 | wall1, wall2 | MAIN_BOX2, 0, 5, 1.0, 1.0 ); ( 15, 1.0 | wall1, wall2 | MAIN_BOX2, 1, 5, 1.0, 1.0 ); ( 15, 1.0 | wall1, wall2 | MAIN_BOX2, 2, 5, 1.0, 1.0 ); ( 15, 1.0 | wall1, wall2 | MAIN_BOX2, 3, 5, 1.0, 1.0 ); ( 15, 1.0 | wall1, wall2 | MAIN_BOX2, 4, 5, 1.0, 1.0 ); ( 15, 1.0 | wall1, wall2 | MAIN_BOX2, 5, 5, 1.0, 1.0 ); ( 15, 1.0 | wall1, wall2 | MAIN_BOX2, 0, 6, 1.0, 1.0 ); ( 15, 1.0 | wall1, wall2 | MAIN_BOX2, 1, 6, 1.0, 1.0 ); ( 15, 1.0 | wall1, wall2 | MAIN_BOX2, 2, 6, 1.0, 1.0 ); ( 15, 1.0 | wall1, wall2 | MAIN_BOX2, 3, 6, 1.0, 1.0 ); ( 15, 1.0 | wall1, wall2 | MAIN_BOX2, 4, 6, 1.0, 1.0 ); ( 15, 1.0 | wall1, wall2 | MAIN_BOX2, 5, 6, 1.0, 1.0 )
%

% FFD box degree: 3D case (x_degree, y_degree, z_degree)
%                 2D case (x_degree, y_degree, 0)
FFD_DEGREE= ( 5 , 6 , 0 );( 5, 6 , 0 )
%
% Surface grid continuity at the intersection with the faces of the FFD boxes.
% To keep a particular level of surface continuity, SU2 automatically freezes the right
% number of control point planes (NO_DERIVATIVE, 1ST_DERIVATIVE, 2ND_DERIVATIVE, USER_INPUT)
FFD_CONTINUITY= 2ND_DERIVATIVE
%
%
% --------------------- OPTIMAL SHAPE DESIGN DEFINITION -----------------------%
%
% Optimization design variables, separated by semicolons
%
% Optimization constraint functions with scaling factors, separated by semicolons
%
% Optimization objective function with scaling factor
% ex= Objective * Scale
OPT_OBJECTIVE= ENTROPY_GENERATION*5e-4
% ex= (Objective = Value ) * Scale, use '>','<','='
OPT_CONSTRAINT= (TOTAL_PRESSURE_LOSS = 4380664.5) * 5e-4
%
%REF_SHARP_EDGES= 4
%SENS_REMOVE_SHARP= YES
%ADJ_SHARP_LIMITER_COEFF= 0.00015
%WRT_SHARPEDGES= YES
%
VISUALIZE_DEFORMATION= YES
%
FIN_DIFF_STEP= 1E-05
% Maximum number of iterations
OPT_ITERATIONS= 19
%
% Requested accuracy
OPT_ACCURACY= 1E-10
%
%
% --------------------- OBJECTIVE FUNCTION DEFINITION -----------------------%
%
OBJECTIVE_FUNCTION= ENTROPY_GENERATION
%
% --------------------------- CONVERGENCE PARAMETERS --------------------------%
%
% Number of total iterations
EXT_ITER= 20000
HB_PRECONDITION= NO
% Convergence criteria (CAUCHY, RESIDUAL)
%
CONV_CRITERIA= RESIDUAL
%
RESIDUAL_FUNC_FLOW= RHO
%
% Residual reduction (order of magnitude with respect to the initial value)
RESIDUAL_REDUCTION= 4
%
% Min value of the residual (log10 of the residual)
RESIDUAL_MINVAL= -7.03
%
% Start convergence criteria at iteration number
STARTCONV_ITER= 10
%
% Number of elements to apply the criteria
CAUCHY_ELEMS= 100
%
% Epsilon to control the series convergence
CAUCHY_EPS= 1E-6
%
% Function to apply the criteria (LIFT, DRAG, NEARFIELD_PRESS, SENS_GEOMETRY, 
% 	      	    		 SENS_MACH, DELTA_LIFT, DELTA_DRAG)
CAUCHY_FUNC_FLOW= DRAG
%
%
% ------------------------- INPUT/OUTPUT INFORMATION --------------------------%
%
% Mesh input file
MESH_FILENAME= su2mesh_per_ffd_a1.su2
%
% Mesh input file format (SU2, CGNS, NETCDF_ASCII)
MESH_FORMAT= SU2
%
% Mesh output file
MESH_OUT_FILENAME= su2mesh_per_ffd_a1.su2
%
% Restart flow input file
SOLUTION_FLOW_FILENAME= restart_flow.dat
%
% Restart adjoint input file
SOLUTION_ADJ_FILENAME= sol_adj.dat
%
% Output file format (PARAVIEW, TECPLOT, STL)
OUTPUT_FORMAT= TECPLOT
%
% Output file convergence history (w/o extension) 
CONV_FILENAME= history
%
% Output file restart flow
RESTART_FLOW_FILENAME= restart_flow.dat
%
% Output file restart adjoint
RESTART_ADJ_FILENAME= restart_adj.dat
%
% Output file flow (w/o extension) variables
VOLUME_FLOW_FILENAME= flow
%
% Output file adjoint (w/o extension) variables
VOLUME_ADJ_FILENAME= adjoint
%
% Output objective function gradient (using continuous adjoint)
GRAD_OBJFUNC_FILENAME= of_grad.dat
%
% Output file surface flow coefficient (w/o extension)
SURFACE_FLOW_FILENAME= surface_flow
%
% Output file surface adjoint coefficient (w/o extension)
SURFACE_ADJ_FILENAME= surface_adjoint
%
% Writing solution file frequency
WRT_SOL_FREQ= 100
%
% Writing convergence history frequency
WRT_CON_FREQ= 1
% Output residual values in the solution files
WRT_BINARY_RESTART= NO
READ_BINARY_RESTART= NO
WRT_RESIDUALS= NO
%
% Output limiters values in the solution files
WRT_LIMITERS= NO
